375

H 15 15.74647 15.46899
H 16.246740000000003 15 15
O 15.96789 15.78579 15.49369
H 22.60765098252726 10.687580638940226 11.904884841446147
H 23.990328323038856 11.335432502718007 11.909472132088187
O 23.395101499751465 10.802492223382059 12.457772004603697
H 26.978017209845376 13.282418284790756 7.028471777156457
H 26.430467739750384 14.480360521739016 6.2560381662007405
O 26.910565566728646 13.647632983136019 6.133465797034853
H 11.960686693833688 23.139180318816084 23.33100711789915
H 11.461555505166421 22.41769487181282 24.580749697337854
O 12.085784975689174 23.09989160299421 24.291097749655275
H 25.42425824624657 15.455556915950288 10.950278191295816
H 23.94931628222116 15.44557891899788 10.55533977719345
O 24.83451171722347 15.609971770316305 10.197070192960474
H 1.407841585983051 30.166021147021727 23.870566377164103
H 2.597614725244894 30.1192695889064 22.91464594244958
O 2.1205698897996266 29.58414481478234 23.566583641768833
H 28.853145078531483 17.243384402680277 8.864148427282986
H 29.205732510312295 16.968847307177658 7.404065828680016
O 28.502231057540776 16.837351598606357 8.057325078347171
H 7.044473222869022 13.548654008886098 22.754483940735902
H 6.509630532831214 14.005199172699704 21.399109631214166
O 7.084668014461296 13.341503686942799 21.808735386759935
H 1.0760539238587223 4.439097066038925 17.322729648016693
H 0.9996995008980141 5.950190059838047 17.11706566287212
O 1.5596021396037252 5.181632225552162 16.930569139504584
H 25.589058462472728 19.3718993127623 28.85824986615418
H 25.195644911900857 19.2988737057583 27.384675047032953
O 25.949760226688817 19.175638833737832 27.980557855159148
H 9.382218101268878 20.604744836610976 3.735672099728044
H 10.748785344524912 21.029495880381322 4.2682227818941785
O 10.021586147524122 21.33218080141426 3.7038503612704425
H 10.498735513927192 8.442015613375823 11.563605593876506
H 9.345592525844511 7.7585642043782395 10.83238392490398
O 10.310842012582526 7.745634400290492 10.91652256773979
H 23.823761195545536 11.47919137027319 24.819468459654807
H 25.154094324181425 10.775293792513217 24.56203560340391
O 24.77686940876861 11.56965619007518 24.96902799550898
H 8.846988074434394 18.713469012049202 12.950334419274633
H 8.38947219696431 17.322654411095552 12.516925055927555
O 9.10476955949148 17.96435791409619 12.39234833218518
H 16.562800214324376 18.201600558527964 2.5156153710226334
H 15.519781961832146 19.229426354096553 2.082929841414985
O 16.441242719748963 19.15225126387837 2.3725971329222943
H 17.540147192599793 0.04941849943005938 9.688361000826172
H 17.385470036609664 0.6418813199838657 8.289578497262365
O 18.023322033630443 0.5489256315506515 9.013081871535428
H 8.645389788253388 9.962321438603077 23.0007505193188
H 8.95176395601974 11.433811959655843 22.73171478864844
O 9.117416859255222 10.54388073442239 22.385977037304833
H 21.176823883693558 22.157445770559697 7.183797343469006
H 19.835605210005333 21.66449886060469 6.64559150745846
O 20.555819821268837 21.416059564056116 7.244358484130527
H 25.898459190485635 23.940338081412737 19.13859292949941
H 26.11103988290036 24.33922255494366 17.6800901579599
O 26.09669913720416 23.567797565835978 18.266307602167327
H 30.530342597122182 1.5977142112028693 20.03664779156203
H 29.17556021097233 2.102098193777853 19.545026806554368
O 30.086641007059264 1.9517306210657663 19.25130169905031
H 30.014518615804285 20.600506619646698 10.311113231815288
H 30.064964544178807 20.886589470413625 8.812066361498184
O 30.47927921676589 21.137003112215357 9.65146461190061
H 19.014709673813503 16.7495102497672 5.088619137867331
H 18.229591898767026 16.337628373952022 3.8454485509079057
O 19.098889660177917 16.247644999837103 4.263990612221825
H 10.085454832758176 21.24134549232569 16.07190428813571
H 8.68727141846654 21.04302862087384 15.491143350143712
O 9.151930157146433 21.433934287600422 16.246284448872593
H 26.07808095587654 6.172891517563779 19.5866609539118
H 25.467790570119142 7.076331677152189 20.655712510991695
O 26.317755973490087 6.737432836926616 20.336871717073738
H 1.0870903998199657 21.94807763740429 1.1948087295698517
H 2.252331463088703 21.342653441055578 1.9740420165564017
O 1.4958965697926316 21.098802095187033 1.4196993102615842
H 8.943185562436266 25.744384973617546 9.6283383084477
H 8.18894433224805 24.60271368144499 10.306008239839976
O 8.78055138589515 25.346102379220284 10.49660572354571
H 17.46914173306791 27.896832513178992 25.974675828306864
H 18.70076300482853 28.53537327244281 25.336785202646368
O 18.194375215812368 27.709546800733943 25.359917614111804
H 26.030569473619693 2.4072221933323084 23.377531177786356
H 24.55943932519803 2.370606415709145 22.970143058379424
O 25.218372416894425 1.8919990911263485 23.49520998004097
H 14.684520758366403 6.046472114920941 5.303058335949981
H 15.316944038791325 4.672521411038132 5.093702260622519
O 15.434985489948671 5.60883022080847 4.873827088638225
H 29.585835799997092 10.333453377253495 2.8431672463734707
H 30.132529467848563 10.687701467862945 1.4621661484627333
O 29.304665784311275 10.507141309063362 1.9322648755768803
H 23.081001795166717 8.23715951901729 3.0635651052674815
H 23.690516035863876 7.600278522478032 1.8168074322473653
O 23.048766565617044 8.27060901915746 2.0956760489101662
H 20.78909345557351 4.963545395689164 14.655151132012953
H 21.26987936855337 4.869176653698245 16.10134239011652
O 20.504119526334282 5.127450443134994 15.566684016540847
H 8.113994602121817 13.379946432920438 2.7100467700744932
H 8.379031684215587 12.053983205999145 3.4193468296879823
O 8.046446521584357 12.95051978768922 3.5760705674849147
H 18.101501502514825 20.81101285891992 9.286685633114686
H 18.060084226633318 21.884619154875374 8.201704601417186
O 18.43803447338873 21.694320175023133 9.073423003164402
H 24.220609212385156 30.201299722470157 11.430361016636143
H 22.739479545573506 30.33646413043926 11.084651309643746
O 23.576985224195493 0.03736975687009281 11.058870150068804
H 7.731904966576949 12.01529967925603 16.455353024687337
H 7.4466206316251835 13.112006074560748 17.47876772036493
O 7.485392999104799 12.949888817108974 16.52421664207926
H 12.859771045770897 1.3233096705866736 28.870989012566458
H 12.10844666271668 0.7503019667115034 30.070448703980855
O 12.054643557350117 1.4443804698519804 29.396421019066363
H 1.7690960504895517 19.21657307403125 24.19663771038115
H 1.1521859206497977 18.053528832867393 24.970123129375384
O 1.9821849504059403 18.3457302842501 24.5643239362839
H 0.8809927229198569 27.941589388796356 2.077400178945625
H 0.1540488042585507 26.829419007331392 2.829835751146608
O 1.0084189363540998 27.28354853982962 2.77719443851121
H 4.403580237681973 10.406153798809997 0.16858464248992736
H 3.6757606485966297 11.010189580504928 29.463546512855924
O 3.959490356744557 10.161980462121534 29.83636256254472
H 23.01010904434581 15.73500133945984 4.547126147898968
H 23.706053378701107 15.585139551051421 5.897952797197017
O 23.877002405522706 15.815854678920932 4.972479932818541
H 8.212824465272284 20.21399162690014 30.343759167229575
H 7.455949046666974 20.855748027453377 1.0105940621198082
O 7.424087916049528 20.740575394576194 0.04899477151487158
H 21.520956986390974 3.372245050139717 27.579053202288424
H 20.519903117363228 3.8411923584528656 28.63238566733943
O 20.968420932502045 3.0468607856391703 28.305549034395042
H 23.603851431248053 21.46096568502124 5.290478648658695
H 23.53543838832663 21.138391426927832 3.799574489373559
O 23.146966889645334 20.892415373519057 4.652533303479935
H 23.779565735086365 2.7159623293412007 13.21077840799606
H 22.898845134674076 3.044694669231222 12.007534467093027
O 23.781406656873795 3.204828608023526 12.374134172329388
H 16.752940557885626 14.980616508027733 25.242228759507256
H 17.12530171272383 15.28573803910583 26.691289741743724
O 16.476533220895387 14.806288141785053 26.154465466333463
H 28.485934341570413 21.358801068000147 2.581101926580623
H 27.594457185273036 20.35975186933377 1.8471408328951207
O 27.573793890753887 21.225141744468623 2.2826020309067228
H 0.03437644076181754 9.072547122694166 20.140612237807872
H 31.161469994201894 10.211111105250575 21.151001516279724
O 30.854215183006865 9.308572512371457 20.977878346076277
H 21.075364487304356 8.695733958493408 16.64202469186582
H 22.1873409925779 7.700708903090804 16.318044600748046
O 21.278345417936997 7.934795819724517 16.077454859810967
H 26.018721241511884 4.029019532318798 3.1078169014654233
H 26.3683473365291 3.9270773559414396 1.6249483654992518
O 25.61563561999725 3.908605828630704 2.2348966724683623
H 20.83905351693191 23.1199866471512 22.116554584413166
H 19.507225531820655 23.59998882858525 21.54439915754644
O 20.12207220504451 22.851361574440887 21.522630706112587
H 27.83114908791002 10.279564565608919 25.10542226016371
H 28.691614358270055 11.02759484451651 26.12108949353381
O 28.224630091088795 10.189312066765606 25.98632769838621
H 15.208436554682084 27.53048993661052 17.073819974078276
H 15.596413819161375 28.9586936049068 16.69800401817405
O 15.577301285577214 28.05545399032475 16.347652805232432
H 12.98594532434047 2.452750553415932 9.792632256730865
H 12.638550013896843 1.731495159790246 8.492387332092573
O 12.98710506232738 2.569933564797968 8.83074140983022
H 30.224738662000075 15.367891137020251 3.0333018093906965
H 0.13338726547018648 15.343644957745532 4.031309327579798
O 31.046702628429458 15.827782896895446 3.2609902183854733
H 23.02488953840772 25.793044236788056 28.357680345098792
H 22.181664242838103 26.296414447332758 29.52691908917449
O 23.023092619698012 25.86063273355822 29.32432183535643
H 17.680548691039405 1.968318893278208 4.370755192521704
H 16.943315695862964 1.8725006361166 5.704485330524776
O 17.69710016812208 1.5029609896518528 5.22054062110875
H 17.111876088086998 29.16266386285078 12.380654103037392
H 16.947586487488334 30.30575015105359 11.381708472155582
O 16.778953869575385 29.357916235129203 11.491830998004136
H 15.696889216602322 12.316360298318957 18.27156827591604
H 16.190445953730634 13.744746345708304 18.053291489567382
O 16.29089457119083 12.98440290387188 18.645525386272627
H 9.298341052582218 12.379383241309096 21.207863713288976
H 9.414040075528145 13.631930594509308 20.342260702272664
O 9.938270622707597 12.898939444301693 20.698433932346532
H 2.5917949300165137 27.606120990057786 9.84933306753683
H 3.5398459797775 26.9102680173792 8.875414407657336
O 2.766341647338669 26.747321934549632 9.43585413188186
H 7.407840564957272 28.076652243095232 26.809969795639294
H 7.999205578309904 27.61922263542143 28.14135076426016
O 7.301140084245979 28.17786245959409 27.76774779914127
H 14.508976885890943 0.5015563710359883 19.341385089033665
H 13.889325389812385 1.1502065724307051 20.577028503712107
O 14.523812796920344 0.4683580862861711 20.30970578701218
H 5.481691783354475 22.159605712285135 20.67599923876712
H 5.858231515705032 20.685309270824582 20.548729677370368
O 5.312649372513632 21.291516194866585 21.071994765995825
H 20.39671194051337 22.589118556518393 28.344774762683514
H 21.282963468980753 23.635914392008438 29.015823505838522
O 20.379307353996523 23.491600178412167 28.69718249104963
H 15.468577718339722 13.948162361210661 8.676385268170232
H 15.998886865726947 14.53742452182148 7.37136725186942
O 15.466065303427479 14.76118749895855 8.14917466730817
H 26.75218393491955 1.6920240508170157 12.158782091864722
H 25.523392727564943 2.1420908863492616 11.371990047623045
O 26.102832829724367 1.3780931535531282 11.511667157386398
H 28.5156998871914 12.032211873025068 27.196780827540977
H 29.593333615532163 12.70485193371613 26.349555588955678
O 28.969763838197235 12.878886346548276 27.070545060893128
H 30.955978861832307 14.720642911317393 13.276774217519586
H 30.58073545544103 13.465259053191332 12.492724816450753
O 30.997618858706677 14.333856963778032 12.38928903682845
H 0.6803422938086733 3.301721767513482 12.446725692909464
H 1.594490373189275 4.082937978539432 11.505681470146783
O 0.8041373609507474 4.180545759484309 12.0577393474065
H 11.169150877074356 30.33716187061361 3.354134456868546
H 10.810737572668351 29.55803726885972 2.090791879905899
O 10.55002981017939 29.672316227432454 3.0170342050592756
H 28.798079187740278 24.78661280494838 4.872348015486123
H 30.251597857251504 24.810856939979164 4.4052019913149625
O 29.36257476283746 25.09929349792682 4.14947684132421
H 14.918623726985405 18.743293010610433 17.474780569684082
H 13.907687719650662 17.612380202489618 17.299925435065795
O 14.801852031468291 17.79339316315068 17.62651011664841
H 7.19314181919466 1.0502812839375941 8.68274265790741
H 7.1940434323295905 1.5290142243718856 10.132688749124906
O 7.082088545617892 0.733014765172877 9.591575057747338
H 11.156866612900492 30.259163388239358 28.852890499003777
H 10.70686646679142 30.083887061451463 27.404336811227743
O 10.409574545008107 29.95314128228228 28.317285942982537
H 16.66487330184721 20.9958229095233 18.345018554566135
H 16.56462110715303 19.49014568746981 18.11174766257939
O 16.83300398279838 20.143788115742158 18.77482780156906
H 21.59328450829111 3.2098538081047825 5.086932732951947
H 22.691986360592256 3.9369130175935583 4.315072088633566
O 22.492203112510225 3.5583029625938796 5.184378790976838
H 1.7924699368192956 6.44866143117965 24.051360820534804
H 0.8288920411820127 7.544804951565961 24.500266969250024
O 1.6075596030435015 7.046718814767611 24.79102475699436
H 27.837375733933087 6.656290273995231 9.361999888982007
H 28.249158772717703 8.052051644092318 8.899598942492906
O 28.116004951749474 7.520986827221443 9.699094585347492
H 1.2375604511003129 22.632818941331497 24.50798879974394
H 2.028726869139384 22.451535715671557 23.214651334245644
O 1.7704517638150394 21.984564426016995 24.023468277260598
H 12.029991286470583 30.20793982879192 0.20929082613603203
H 13.325464033152624 30.373178169807225 29.911794146608
O 12.86371923762737 29.757493643259256 0.006897293880232591
H 20.106403858279865 25.299825332654176 18.229239467477463
H 21.384280755838777 25.470553804959795 17.41106336661078
O 20.61879864842266 24.886195562151364 17.518374363193736
H 13.325444550745633 27.279558617930594 12.54431370677114
H 12.43868256485635 27.246983207264762 13.786940654652781
O 13.365518094071417 27.312528050725998 13.511926404148797
H 24.81913554050858 6.62875648265387 22.284941510087734
H 24.87177158138178 7.073903422160889 23.744600154445635
O 24.882802329108074 7.42060546080134 22.839818920275096
H 4.38984372201944 6.506580851770522 25.197705876919922
H 5.404160672435596 7.514730521426802 24.662612355869253
O 5.119925206207424 6.593358644104992 24.56650238698706
H 3.209753667003668 26.900383958234418 16.318658487267577
H 4.309069745610427 26.791155157559142 15.264569811197248
O 3.3484273357234913 26.87493203111369 15.35996718267072
H 16.46221546005335 24.489489273788333 15.970004392424459
H 15.95060893647568 23.752303380999123 14.73455085905894
O 16.578979167871655 23.669236002734618 15.467492688717774
H 21.616201265502987 17.463944451006594 4.68155920034654
H 22.76834051372051 18.436896049440055 4.921288315020854
O 22.04254249210275 18.24949410514142 4.307243686521558
H 28.449728976228847 30.408594720533554 24.736428110588285
H 29.934620546615424 30.437222553772294 24.38173503205567
O 29.210633639641845 0.22045128618875495 24.68341980692838
H 5.910222180829372 8.446014396653883 17.27600766551583
H 7.04517320599256 8.557521228946431 16.260634775670376
O 6.795871376140329 8.104953013617704 17.080380877098435
H 30.891310158338825 26.918633024392562 26.509161875827115
H 0.5093037825801476 27.880095781740927 25.697155204710096
O 0.33128728586142925 26.936310423044123 25.82573353222113
H 21.80759343824567 7.90152953252906 20.863015094972205
H 22.724567019474865 8.65377992422336 19.901345448927632
O 22.20607965121004 7.839146506873707 19.98194512006249
H 27.03457803128174 30.13929649161886 12.743854081935911
H 27.743148445106666 0.15454528111055602 13.833713951360261
O 26.883273683525807 30.556414963030996 13.605298438616572
H 13.65543080830472 21.722354882740394 7.01513917140458
H 13.636084636267098 20.207860618867734 7.208691642131014
O 14.160046250381066 20.996994421564526 7.4128610107355755
H 14.798727974714488 1.775307987040959 13.981590260375185
H 15.400880910490164 1.1026291266149035 15.213030352816812
O 14.783124017507472 1.8013468815963283 14.950117852645958
H 26.856238443045616 10.39116164800997 18.63462862416423
H 27.6260069689571 9.87626515117127 19.8486581636151
O 26.94945398762347 10.520136946949707 19.590475598848176
H 12.643970396607218 18.027532075374648 22.72468307859468
H 11.981771811954632 17.102327405133853 21.706341750135138
O 12.352692332376844 17.111591550110575 22.601487104727102
H 30.474044597292586 3.453053604503946 0.756026324308599
H 29.996758435385157 2.1103775821237196 0.20743838497991526
O 29.861039610124024 3.0652171295050596 0.11355067584641101
H 1.458135633805147 17.088239421538876 21.845610564155688
H 2.2949354467485406 15.958611799925913 22.441628364348723
O 1.409614194861076 16.351271304644033 22.47289906966433
H 28.7891029872561 24.408199387481496 23.420483559181505
H 30.132021529915168 23.705498531996767 23.235251261556385
O 29.590164052550254 24.423767331510607 22.875482629559816
H 11.060297745388421 4.63423417977839 5.503839212950509
H 11.449531755738574 3.6659473074383113 4.389188089665466
O 11.07510611319877 4.547055165982298 4.5388792467880075
H 23.773113567383625 19.452695635078083 17.914705975044722
H 24.57539792247281 19.065914605378847 19.15497608967457
O 23.740983409927793 19.47660887632711 18.882881069939664
H 23.093742866001488 24.067076288467188 8.10768744036177
H 21.78776296332993 24.856171787986312 8.164910644192503
O 22.328751729501693 24.31746529641357 7.568186643071929
H 18.86156147493744 9.351583322716145 19.575560078343454
H 20.23831684780867 8.73618833556414 19.815066574410658
O 19.656081142602808 9.052824761618059 19.108174772237767
H 27.114039275229946 14.105908368201455 17.124167702183037
H 27.55213801850897 13.997848065638784 18.582907627854304
O 26.76148721143206 14.032999503402548 18.023811267294015
H 5.54487001499195 16.17772598841836 22.898454850887482
H 7.06261361125451 16.343338958915314 22.87486611189691
O 6.320158750089315 16.194563355000877 23.479497951541553
H 16.51244993226292 14.873835178660523 21.896122285596796
H 17.635761547213946 15.042027636084786 20.875626317166887
O 17.476483139423923 14.83114938297213 21.807889055817334
H 5.071262962739708 27.125420411499537 12.264730042808525
H 6.040542625883574 26.05533845563869 12.761671941783383
O 5.184287346031315 26.462258877888367 12.962160665609128
H 17.9101837308736 3.523414242240376 25.84878604653253
H 18.163767578082748 3.0256434099406904 27.26985928164263
O 17.628683265557132 3.6573411060249095 26.766276257751947
H 17.82286651842776 2.9595877374635773 23.621364004638636
H 18.204553497010803 1.4818494906034156 23.575164083136443
O 18.527346715564764 2.3447130859888596 23.875537211951386
H 29.149312644583723 24.65802532273618 28.968775828024143
H 28.13076112717125 23.927620423605305 28.096657029750443
O 28.221483049370065 24.379252232789348 28.949154129138883
H 6.896110288619617 20.592057397374727 11.001011484185097
H 6.512956238081477 20.310245277057312 12.451978269124856
O 7.23149325242915 20.6650196479262 11.907191368137946
H 3.7409834430566065 16.834685030428 0.7635799239388107
H 2.8567145241744702 16.70904875257532 2.0020522544276043
O 3.6978836291527037 16.403681963069616 1.6303820734914725
H 5.5380789507166375 29.249923744897988 7.6279285507375265
H 4.937175734493059 30.653346680636968 7.657067815895402
O 5.360022151707271 29.99194860331952 8.225140481555256
H 10.959015249570166 3.6527273670682208 25.23486545973122
H 9.450348371123276 3.872638958721659 25.31908452131333
O 10.287070546350916 4.160569362998303 25.713983427965925
H 10.0334330231686 29.87281576226395 12.581454823571098
H 8.93116826094123 28.940211261619297 13.07823540685629
O 9.069524047281849 29.778513710036446 12.612338697205015
H 6.58105575047549 3.0176646919262837 25.29823888070532
H 6.8487324986566165 2.0310982007545393 24.163970206369186
O 6.130161796758293 2.499552213659675 24.61470299513258
H 4.53549162202106 14.477144015418794 0.34737157540081365
H 5.786563704563407 13.85694871952396 0.9651952944607746
O 5.453942707815892 14.246025854536668 0.14243450405265384
H 3.9535447663675685 12.322293000477206 6.68577326913803
H 5.238053713272344 12.011728380967 5.920844454783344
O 4.273375297416768 11.997907192993308 5.830525069016097
H 14.462389962850661 5.067222804860247 0.7646924828974235
H 14.765514313478228 4.3632205229412975 29.937766670592598
O 14.35628654023322 5.163382807586765 30.30001797912837
H 2.390707487537307 21.536185830224387 17.120251969578266
H 1.059805010329054 21.49585879594902 16.37285513049779
O 1.4567421826570424 21.778099266480318 17.21055093490326
H 20.10517260584708 25.107437647675944 3.9340372782552637
H 21.392790298094685 24.59184988625255 3.2954923327100336
O 20.43729417393378 24.6518955638297 3.1459104620913583
H 0.3211734045234139 28.837844446966763 13.743141498575076
H 0.40837609895249277 28.499234442122923 15.229502377804598
O 0.6280097566946998 29.193822101500366 14.590548465125961
H 28.172430028989602 26.89247725959233 1.855426669364958
H 28.65305937909501 28.08791746714509 2.6748458823344103
O 28.03995955527338 27.33817310951185 2.705587823181052
H 23.29927719846126 18.79350076284903 16.80222059069885
H 24.662205684380492 18.15763359467084 16.538348281990693
O 23.74005794186264 18.137663150800407 16.241367162993456